
---------- Begin Simulation Statistics ----------
sim_seconds                                  0.088451                       # Number of seconds simulated
sim_ticks                                 88451081000                       # Number of ticks simulated
final_tick                                88451081000                       # Number of ticks from beginning of simulation (restored from checkpoints and never reset)
sim_freq                                 1000000000000                       # Frequency of simulated ticks
host_inst_rate                                1602195                       # Simulator instruction rate (inst/s)
host_op_rate                                  2866185                       # Simulator op (including micro ops) rate (op/s)
host_tick_rate                             3307007605                       # Simulator tick rate (ticks/s)
host_mem_usage                                 660964                       # Number of bytes of host memory used
host_seconds                                    26.75                       # Real time elapsed on the host
sim_insts                                    42853196                       # Number of instructions simulated
sim_ops                                      76660590                       # Number of ops (including micro ops) simulated
system.voltage_domain.voltage                       1                       # Voltage in Volts
system.clk_domain.clock                          1000                       # Clock period in ticks
system.mem_ctrls.pwrStateResidencyTicks::UNDEFINED  88451081000                       # Cumulative time (in ticks) in various power states
system.mem_ctrls.bytes_read::cpu.inst           20864                       # Number of bytes read from this memory
system.mem_ctrls.bytes_read::cpu.data          839936                       # Number of bytes read from this memory
system.mem_ctrls.bytes_read::total             860800                       # Number of bytes read from this memory
system.mem_ctrls.bytes_inst_read::cpu.inst        20864                       # Number of instructions bytes read from this memory
system.mem_ctrls.bytes_inst_read::total         20864                       # Number of instructions bytes read from this memory
system.mem_ctrls.bytes_written::writebacks       566592                       # Number of bytes written to this memory
system.mem_ctrls.bytes_written::total          566592                       # Number of bytes written to this memory
system.mem_ctrls.num_reads::cpu.inst              326                       # Number of read requests responded to by this memory
system.mem_ctrls.num_reads::cpu.data            13124                       # Number of read requests responded to by this memory
system.mem_ctrls.num_reads::total               13450                       # Number of read requests responded to by this memory
system.mem_ctrls.num_writes::writebacks          8853                       # Number of write requests responded to by this memory
system.mem_ctrls.num_writes::total               8853                       # Number of write requests responded to by this memory
system.mem_ctrls.bw_read::cpu.inst             235882                       # Total read bandwidth from this memory (bytes/s)
system.mem_ctrls.bw_read::cpu.data            9496051                       # Total read bandwidth from this memory (bytes/s)
system.mem_ctrls.bw_read::total               9731933                       # Total read bandwidth from this memory (bytes/s)
system.mem_ctrls.bw_inst_read::cpu.inst        235882                       # Instruction read bandwidth from this memory (bytes/s)
system.mem_ctrls.bw_inst_read::total           235882                       # Instruction read bandwidth from this memory (bytes/s)
system.mem_ctrls.bw_write::writebacks         6405710                       # Write bandwidth from this memory (bytes/s)
system.mem_ctrls.bw_write::total              6405710                       # Write bandwidth from this memory (bytes/s)
system.mem_ctrls.bw_total::writebacks         6405710                       # Total bandwidth to/from this memory (bytes/s)
system.mem_ctrls.bw_total::cpu.inst            235882                       # Total bandwidth to/from this memory (bytes/s)
system.mem_ctrls.bw_total::cpu.data           9496051                       # Total bandwidth to/from this memory (bytes/s)
system.mem_ctrls.bw_total::total             16137643                       # Total bandwidth to/from this memory (bytes/s)
system.pwrStateResidencyTicks::UNDEFINED  88451081000                       # Cumulative time (in ticks) in various power states
system.cpu_voltage_domain.voltage                   1                       # Voltage in Volts
system.cpu_clk_domain.clock                       500                       # Clock period in ticks
system.cpu.dtb.walker.pwrStateResidencyTicks::UNDEFINED  88451081000                       # Cumulative time (in ticks) in various power states
system.cpu.dtb.rdAccesses                    22222958                       # TLB accesses on read requests
system.cpu.dtb.wrAccesses                     6789389                       # TLB accesses on write requests
system.cpu.dtb.rdMisses                           164                       # TLB misses on read requests
system.cpu.dtb.wrMisses                           106                       # TLB misses on write requests
system.cpu.apic_clk_domain.clock                 8000                       # Clock period in ticks
system.cpu.interrupts.pwrStateResidencyTicks::UNDEFINED  88451081000                       # Cumulative time (in ticks) in various power states
system.cpu.itb.walker.pwrStateResidencyTicks::UNDEFINED  88451081000                       # Cumulative time (in ticks) in various power states
system.cpu.itb.rdAccesses                           0                       # TLB accesses on read requests
system.cpu.itb.wrAccesses                    54765286                       # TLB accesses on write requests
system.cpu.itb.rdMisses                             0                       # TLB misses on read requests
system.cpu.itb.wrMisses                            39                       # TLB misses on write requests
system.cpu.workload.numSyscalls                     9                       # Number of system calls
system.cpu.pwrStateResidencyTicks::ON     88451081000                       # Cumulative time (in ticks) in various power states
system.cpu.numCycles                        176902162                       # number of cpu cycles simulated
system.cpu.numWorkItemsStarted                      0                       # number of work items this cpu started
system.cpu.numWorkItemsCompleted                    0                       # number of work items this cpu completed
system.cpu.committedInsts                    42853196                       # Number of instructions committed
system.cpu.committedOps                      76660590                       # Number of ops (including micro ops) committed
system.cpu.num_int_alu_accesses              76139911                       # Number of integer alu accesses
system.cpu.num_fp_alu_accesses                      6                       # Number of float alu accesses
system.cpu.num_vec_alu_accesses                     0                       # Number of vector alu accesses
system.cpu.num_func_calls                     1489746                       # number of times a function call or return occured
system.cpu.num_conditional_control_insts      4232758                       # number of instructions that are conditional controls
system.cpu.num_int_insts                     76139911                       # number of integer instructions
system.cpu.num_fp_insts                             6                       # number of float instructions
system.cpu.num_vec_insts                            0                       # number of vector instructions
system.cpu.num_int_register_reads           173252300                       # number of times the integer registers were read
system.cpu.num_int_register_writes           65215913                       # number of times the integer registers were written
system.cpu.num_fp_register_reads                    2                       # number of times the floating registers were read
system.cpu.num_fp_register_writes                   4                       # number of times the floating registers were written
system.cpu.num_vec_register_reads                   0                       # number of times the vector registers were read
system.cpu.num_vec_register_writes                  0                       # number of times the vector registers were written
system.cpu.num_cc_register_reads             27537591                       # number of times the CC registers were read
system.cpu.num_cc_register_writes            26512704                       # number of times the CC registers were written
system.cpu.num_mem_refs                      29012345                       # number of memory refs
system.cpu.num_load_insts                    22222957                       # Number of load instructions
system.cpu.num_store_insts                    6789388                       # Number of store instructions
system.cpu.num_idle_cycles                          0                       # Number of idle cycles
system.cpu.num_busy_cycles                  176902162                       # Number of busy cycles
system.cpu.not_idle_fraction                        1                       # Percentage of non-idle cycles
system.cpu.idle_fraction                            0                       # Percentage of idle cycles
system.cpu.Branches                           6316629                       # Number of branches fetched
system.cpu.op_class::No_OpClass                176018      0.23%      0.23% # Class of executed instruction
system.cpu.op_class::IntAlu                  46469196     60.62%     60.85% # Class of executed instruction
system.cpu.op_class::IntMult                       42      0.00%     60.85% # Class of executed instruction
system.cpu.op_class::IntDiv                   1002987      1.31%     62.15% # Class of executed instruction
system.cpu.op_class::FloatAdd                       2      0.00%     62.15% # Class of executed instruction
system.cpu.op_class::FloatCmp                       0      0.00%     62.15% # Class of executed instruction
system.cpu.op_class::FloatCvt                       0      0.00%     62.15% # Class of executed instruction
system.cpu.op_class::FloatMult                      0      0.00%     62.15% # Class of executed instruction
system.cpu.op_class::FloatMultAcc                   0      0.00%     62.15% # Class of executed instruction
system.cpu.op_class::FloatDiv                       0      0.00%     62.15% # Class of executed instruction
system.cpu.op_class::FloatMisc                      0      0.00%     62.15% # Class of executed instruction
system.cpu.op_class::FloatSqrt                      0      0.00%     62.15% # Class of executed instruction
system.cpu.op_class::SimdAdd                        0      0.00%     62.15% # Class of executed instruction
system.cpu.op_class::SimdAddAcc                     0      0.00%     62.15% # Class of executed instruction
system.cpu.op_class::SimdAlu                        0      0.00%     62.15% # Class of executed instruction
system.cpu.op_class::SimdCmp                        0      0.00%     62.15% # Class of executed instruction
system.cpu.op_class::SimdCvt                        0      0.00%     62.15% # Class of executed instruction
system.cpu.op_class::SimdMisc                       0      0.00%     62.15% # Class of executed instruction
system.cpu.op_class::SimdMult                       0      0.00%     62.15% # Class of executed instruction
system.cpu.op_class::SimdMultAcc                    0      0.00%     62.15% # Class of executed instruction
system.cpu.op_class::SimdShift                      0      0.00%     62.15% # Class of executed instruction
system.cpu.op_class::SimdShiftAcc                   0      0.00%     62.15% # Class of executed instruction
system.cpu.op_class::SimdSqrt                       0      0.00%     62.15% # Class of executed instruction
system.cpu.op_class::SimdFloatAdd                   0      0.00%     62.15% # Class of executed instruction
system.cpu.op_class::SimdFloatAlu                   0      0.00%     62.15% # Class of executed instruction
system.cpu.op_class::SimdFloatCmp                   0      0.00%     62.15% # Class of executed instruction
system.cpu.op_class::SimdFloatCvt                   0      0.00%     62.15% # Class of executed instruction
system.cpu.op_class::SimdFloatDiv                   0      0.00%     62.15% # Class of executed instruction
system.cpu.op_class::SimdFloatMisc                  0      0.00%     62.15% # Class of executed instruction
system.cpu.op_class::SimdFloatMult                  0      0.00%     62.15% # Class of executed instruction
system.cpu.op_class::SimdFloatMultAcc               0      0.00%     62.15% # Class of executed instruction
system.cpu.op_class::SimdFloatSqrt                  0      0.00%     62.15% # Class of executed instruction
system.cpu.op_class::MemRead                 22222955     28.99%     91.14% # Class of executed instruction
system.cpu.op_class::MemWrite                 6789386      8.86%    100.00% # Class of executed instruction
system.cpu.op_class::FloatMemRead                   2      0.00%    100.00% # Class of executed instruction
system.cpu.op_class::FloatMemWrite                  2      0.00%    100.00% # Class of executed instruction
system.cpu.op_class::IprAccess                      0      0.00%    100.00% # Class of executed instruction
system.cpu.op_class::InstPrefetch                   0      0.00%    100.00% # Class of executed instruction
system.cpu.op_class::total                   76660590                       # Class of executed instruction
system.cpu.dcache.tags.pwrStateResidencyTicks::UNDEFINED  88451081000                       # Cumulative time (in ticks) in various power states
system.cpu.dcache.tags.tagsinuse           508.966217                       # Cycle average of tags in use
system.cpu.dcache.tags.total_refs            29012347                       # Total number of references to valid blocks.
system.cpu.dcache.tags.sampled_refs             45372                       # Sample count of references to valid blocks.
system.cpu.dcache.tags.avg_refs            639.432844                       # Average number of references to valid blocks.
system.cpu.dcache.tags.warmup_cycle            759000                       # Cycle when the warmup percentage was hit.
system.cpu.dcache.tags.occ_blocks::cpu.data   508.966217                       # Average occupied blocks per requestor
system.cpu.dcache.tags.occ_percent::cpu.data     0.994075                       # Average percentage of cache occupancy
system.cpu.dcache.tags.occ_percent::total     0.994075                       # Average percentage of cache occupancy
system.cpu.dcache.tags.occ_task_id_blocks::1024          512                       # Occupied blocks per task id
system.cpu.dcache.tags.age_task_id_blocks_1024::0           10                       # Occupied blocks per task id
system.cpu.dcache.tags.age_task_id_blocks_1024::1           12                       # Occupied blocks per task id
system.cpu.dcache.tags.age_task_id_blocks_1024::2           34                       # Occupied blocks per task id
system.cpu.dcache.tags.age_task_id_blocks_1024::3          454                       # Occupied blocks per task id
system.cpu.dcache.tags.age_task_id_blocks_1024::4            2                       # Occupied blocks per task id
system.cpu.dcache.tags.occ_task_id_percent::1024            1                       # Percentage of cache occupancy per task id
system.cpu.dcache.tags.tag_accesses          58070066                       # Number of tag accesses
system.cpu.dcache.tags.data_accesses         58070066                       # Number of data accesses
system.cpu.dcache.pwrStateResidencyTicks::UNDEFINED  88451081000                       # Cumulative time (in ticks) in various power states
system.cpu.dcache.ReadReq_hits::cpu.data     22184243                       # number of ReadReq hits
system.cpu.dcache.ReadReq_hits::total        22184243                       # number of ReadReq hits
system.cpu.dcache.WriteReq_hits::cpu.data      6773153                       # number of WriteReq hits
system.cpu.dcache.WriteReq_hits::total        6773153                       # number of WriteReq hits
system.cpu.dcache.demand_hits::cpu.data      28957396                       # number of demand (read+write) hits
system.cpu.dcache.demand_hits::total         28957396                       # number of demand (read+write) hits
system.cpu.dcache.overall_hits::cpu.data     28957396                       # number of overall hits
system.cpu.dcache.overall_hits::total        28957396                       # number of overall hits
system.cpu.dcache.ReadReq_misses::cpu.data        38715                       # number of ReadReq misses
system.cpu.dcache.ReadReq_misses::total         38715                       # number of ReadReq misses
system.cpu.dcache.WriteReq_misses::cpu.data        16236                       # number of WriteReq misses
system.cpu.dcache.WriteReq_misses::total        16236                       # number of WriteReq misses
system.cpu.dcache.demand_misses::cpu.data        54951                       # number of demand (read+write) misses
system.cpu.dcache.demand_misses::total          54951                       # number of demand (read+write) misses
system.cpu.dcache.overall_misses::cpu.data        54951                       # number of overall misses
system.cpu.dcache.overall_misses::total         54951                       # number of overall misses
system.cpu.dcache.ReadReq_miss_latency::cpu.data   3349444000                       # number of ReadReq miss cycles
system.cpu.dcache.ReadReq_miss_latency::total   3349444000                       # number of ReadReq miss cycles
system.cpu.dcache.WriteReq_miss_latency::cpu.data   1316971000                       # number of WriteReq miss cycles
system.cpu.dcache.WriteReq_miss_latency::total   1316971000                       # number of WriteReq miss cycles
system.cpu.dcache.demand_miss_latency::cpu.data   4666415000                       # number of demand (read+write) miss cycles
system.cpu.dcache.demand_miss_latency::total   4666415000                       # number of demand (read+write) miss cycles
system.cpu.dcache.overall_miss_latency::cpu.data   4666415000                       # number of overall miss cycles
system.cpu.dcache.overall_miss_latency::total   4666415000                       # number of overall miss cycles
system.cpu.dcache.ReadReq_accesses::cpu.data     22222958                       # number of ReadReq accesses(hits+misses)
system.cpu.dcache.ReadReq_accesses::total     22222958                       # number of ReadReq accesses(hits+misses)
system.cpu.dcache.WriteReq_accesses::cpu.data      6789389                       # number of WriteReq accesses(hits+misses)
system.cpu.dcache.WriteReq_accesses::total      6789389                       # number of WriteReq accesses(hits+misses)
system.cpu.dcache.demand_accesses::cpu.data     29012347                       # number of demand (read+write) accesses
system.cpu.dcache.demand_accesses::total     29012347                       # number of demand (read+write) accesses
system.cpu.dcache.overall_accesses::cpu.data     29012347                       # number of overall (read+write) accesses
system.cpu.dcache.overall_accesses::total     29012347                       # number of overall (read+write) accesses
system.cpu.dcache.ReadReq_miss_rate::cpu.data     0.001742                       # miss rate for ReadReq accesses
system.cpu.dcache.ReadReq_miss_rate::total     0.001742                       # miss rate for ReadReq accesses
system.cpu.dcache.WriteReq_miss_rate::cpu.data     0.002391                       # miss rate for WriteReq accesses
system.cpu.dcache.WriteReq_miss_rate::total     0.002391                       # miss rate for WriteReq accesses
system.cpu.dcache.demand_miss_rate::cpu.data     0.001894                       # miss rate for demand accesses
system.cpu.dcache.demand_miss_rate::total     0.001894                       # miss rate for demand accesses
system.cpu.dcache.overall_miss_rate::cpu.data     0.001894                       # miss rate for overall accesses
system.cpu.dcache.overall_miss_rate::total     0.001894                       # miss rate for overall accesses
system.cpu.dcache.ReadReq_avg_miss_latency::cpu.data 86515.407465                       # average ReadReq miss latency
system.cpu.dcache.ReadReq_avg_miss_latency::total 86515.407465                       # average ReadReq miss latency
system.cpu.dcache.WriteReq_avg_miss_latency::cpu.data 81114.252279                       # average WriteReq miss latency
system.cpu.dcache.WriteReq_avg_miss_latency::total 81114.252279                       # average WriteReq miss latency
system.cpu.dcache.demand_avg_miss_latency::cpu.data 84919.564703                       # average overall miss latency
system.cpu.dcache.demand_avg_miss_latency::total 84919.564703                       # average overall miss latency
system.cpu.dcache.overall_avg_miss_latency::cpu.data 84919.564703                       # average overall miss latency
system.cpu.dcache.overall_avg_miss_latency::total 84919.564703                       # average overall miss latency
system.cpu.dcache.blocked_cycles::no_mshrs            0                       # number of cycles access was blocked
system.cpu.dcache.blocked_cycles::no_targets            0                       # number of cycles access was blocked
system.cpu.dcache.blocked::no_mshrs                 0                       # number of cycles access was blocked
system.cpu.dcache.blocked::no_targets               0                       # number of cycles access was blocked
system.cpu.dcache.avg_blocked_cycles::no_mshrs          nan                       # average number of cycles each access was blocked
system.cpu.dcache.avg_blocked_cycles::no_targets          nan                       # average number of cycles each access was blocked
system.cpu.dcache.writebacks::writebacks        43367                       # number of writebacks
system.cpu.dcache.writebacks::total             43367                       # number of writebacks
system.cpu.dcache.ReadReq_mshr_misses::cpu.data        38715                       # number of ReadReq MSHR misses
system.cpu.dcache.ReadReq_mshr_misses::total        38715                       # number of ReadReq MSHR misses
system.cpu.dcache.WriteReq_mshr_misses::cpu.data        16236                       # number of WriteReq MSHR misses
system.cpu.dcache.WriteReq_mshr_misses::total        16236                       # number of WriteReq MSHR misses
system.cpu.dcache.demand_mshr_misses::cpu.data        54951                       # number of demand (read+write) MSHR misses
system.cpu.dcache.demand_mshr_misses::total        54951                       # number of demand (read+write) MSHR misses
system.cpu.dcache.overall_mshr_misses::cpu.data        54951                       # number of overall MSHR misses
system.cpu.dcache.overall_mshr_misses::total        54951                       # number of overall MSHR misses
system.cpu.dcache.ReadReq_mshr_miss_latency::cpu.data   3310729000                       # number of ReadReq MSHR miss cycles
system.cpu.dcache.ReadReq_mshr_miss_latency::total   3310729000                       # number of ReadReq MSHR miss cycles
system.cpu.dcache.WriteReq_mshr_miss_latency::cpu.data   1300735000                       # number of WriteReq MSHR miss cycles
system.cpu.dcache.WriteReq_mshr_miss_latency::total   1300735000                       # number of WriteReq MSHR miss cycles
system.cpu.dcache.demand_mshr_miss_latency::cpu.data   4611464000                       # number of demand (read+write) MSHR miss cycles
system.cpu.dcache.demand_mshr_miss_latency::total   4611464000                       # number of demand (read+write) MSHR miss cycles
system.cpu.dcache.overall_mshr_miss_latency::cpu.data   4611464000                       # number of overall MSHR miss cycles
system.cpu.dcache.overall_mshr_miss_latency::total   4611464000                       # number of overall MSHR miss cycles
system.cpu.dcache.ReadReq_mshr_miss_rate::cpu.data     0.001742                       # mshr miss rate for ReadReq accesses
system.cpu.dcache.ReadReq_mshr_miss_rate::total     0.001742                       # mshr miss rate for ReadReq accesses
system.cpu.dcache.WriteReq_mshr_miss_rate::cpu.data     0.002391                       # mshr miss rate for WriteReq accesses
system.cpu.dcache.WriteReq_mshr_miss_rate::total     0.002391                       # mshr miss rate for WriteReq accesses
system.cpu.dcache.demand_mshr_miss_rate::cpu.data     0.001894                       # mshr miss rate for demand accesses
system.cpu.dcache.demand_mshr_miss_rate::total     0.001894                       # mshr miss rate for demand accesses
system.cpu.dcache.overall_mshr_miss_rate::cpu.data     0.001894                       # mshr miss rate for overall accesses
system.cpu.dcache.overall_mshr_miss_rate::total     0.001894                       # mshr miss rate for overall accesses
system.cpu.dcache.ReadReq_avg_mshr_miss_latency::cpu.data 85515.407465                       # average ReadReq mshr miss latency
system.cpu.dcache.ReadReq_avg_mshr_miss_latency::total 85515.407465                       # average ReadReq mshr miss latency
system.cpu.dcache.WriteReq_avg_mshr_miss_latency::cpu.data 80114.252279                       # average WriteReq mshr miss latency
system.cpu.dcache.WriteReq_avg_mshr_miss_latency::total 80114.252279                       # average WriteReq mshr miss latency
system.cpu.dcache.demand_avg_mshr_miss_latency::cpu.data 83919.564703                       # average overall mshr miss latency
system.cpu.dcache.demand_avg_mshr_miss_latency::total 83919.564703                       # average overall mshr miss latency
system.cpu.dcache.overall_avg_mshr_miss_latency::cpu.data 83919.564703                       # average overall mshr miss latency
system.cpu.dcache.overall_avg_mshr_miss_latency::total 83919.564703                       # average overall mshr miss latency
system.cpu.dcache.replacements                  44860                       # number of replacements
system.cpu.dtb_walker_cache.tags.pwrStateResidencyTicks::UNDEFINED  88451081000                       # Cumulative time (in ticks) in various power states
system.cpu.dtb_walker_cache.tags.tagsinuse            0                       # Cycle average of tags in use
system.cpu.dtb_walker_cache.tags.total_refs            0                       # Total number of references to valid blocks.
system.cpu.dtb_walker_cache.tags.sampled_refs            0                       # Sample count of references to valid blocks.
system.cpu.dtb_walker_cache.tags.avg_refs          nan                       # Average number of references to valid blocks.
system.cpu.dtb_walker_cache.tags.warmup_cycle            0                       # Cycle when the warmup percentage was hit.
system.cpu.dtb_walker_cache.tags.tag_accesses            0                       # Number of tag accesses
system.cpu.dtb_walker_cache.tags.data_accesses            0                       # Number of data accesses
system.cpu.dtb_walker_cache.pwrStateResidencyTicks::UNDEFINED  88451081000                       # Cumulative time (in ticks) in various power states
system.cpu.dtb_walker_cache.blocked_cycles::no_mshrs            0                       # number of cycles access was blocked
system.cpu.dtb_walker_cache.blocked_cycles::no_targets            0                       # number of cycles access was blocked
system.cpu.dtb_walker_cache.blocked::no_mshrs            0                       # number of cycles access was blocked
system.cpu.dtb_walker_cache.blocked::no_targets            0                       # number of cycles access was blocked
system.cpu.dtb_walker_cache.avg_blocked_cycles::no_mshrs          nan                       # average number of cycles each access was blocked
system.cpu.dtb_walker_cache.avg_blocked_cycles::no_targets          nan                       # average number of cycles each access was blocked
system.cpu.dtb_walker_cache.replacements            0                       # number of replacements
system.cpu.icache.tags.pwrStateResidencyTicks::UNDEFINED  88451081000                       # Cumulative time (in ticks) in various power states
system.cpu.icache.tags.tagsinuse           266.278147                       # Cycle average of tags in use
system.cpu.icache.tags.total_refs            54765286                       # Total number of references to valid blocks.
system.cpu.icache.tags.sampled_refs               336                       # Sample count of references to valid blocks.
system.cpu.icache.tags.avg_refs          162991.922619                       # Average number of references to valid blocks.
system.cpu.icache.tags.warmup_cycle            439000                       # Cycle when the warmup percentage was hit.
system.cpu.icache.tags.occ_blocks::cpu.inst   266.278147                       # Average occupied blocks per requestor
system.cpu.icache.tags.occ_percent::cpu.inst     0.520075                       # Average percentage of cache occupancy
system.cpu.icache.tags.occ_percent::total     0.520075                       # Average percentage of cache occupancy
system.cpu.icache.tags.occ_task_id_blocks::1024          285                       # Occupied blocks per task id
system.cpu.icache.tags.age_task_id_blocks_1024::0           25                       # Occupied blocks per task id
system.cpu.icache.tags.age_task_id_blocks_1024::1           12                       # Occupied blocks per task id
system.cpu.icache.tags.age_task_id_blocks_1024::4          248                       # Occupied blocks per task id
system.cpu.icache.tags.occ_task_id_percent::1024     0.556641                       # Percentage of cache occupancy per task id
system.cpu.icache.tags.tag_accesses         109530908                       # Number of tag accesses
system.cpu.icache.tags.data_accesses        109530908                       # Number of data accesses
system.cpu.icache.pwrStateResidencyTicks::UNDEFINED  88451081000                       # Cumulative time (in ticks) in various power states
system.cpu.icache.ReadReq_hits::cpu.inst     54764950                       # number of ReadReq hits
system.cpu.icache.ReadReq_hits::total        54764950                       # number of ReadReq hits
system.cpu.icache.demand_hits::cpu.inst      54764950                       # number of demand (read+write) hits
system.cpu.icache.demand_hits::total         54764950                       # number of demand (read+write) hits
system.cpu.icache.overall_hits::cpu.inst     54764950                       # number of overall hits
system.cpu.icache.overall_hits::total        54764950                       # number of overall hits
system.cpu.icache.ReadReq_misses::cpu.inst          336                       # number of ReadReq misses
system.cpu.icache.ReadReq_misses::total           336                       # number of ReadReq misses
system.cpu.icache.demand_misses::cpu.inst          336                       # number of demand (read+write) misses
system.cpu.icache.demand_misses::total            336                       # number of demand (read+write) misses
system.cpu.icache.overall_misses::cpu.inst          336                       # number of overall misses
system.cpu.icache.overall_misses::total           336                       # number of overall misses
system.cpu.icache.ReadReq_miss_latency::cpu.inst     62322000                       # number of ReadReq miss cycles
system.cpu.icache.ReadReq_miss_latency::total     62322000                       # number of ReadReq miss cycles
system.cpu.icache.demand_miss_latency::cpu.inst     62322000                       # number of demand (read+write) miss cycles
system.cpu.icache.demand_miss_latency::total     62322000                       # number of demand (read+write) miss cycles
system.cpu.icache.overall_miss_latency::cpu.inst     62322000                       # number of overall miss cycles
system.cpu.icache.overall_miss_latency::total     62322000                       # number of overall miss cycles
system.cpu.icache.ReadReq_accesses::cpu.inst     54765286                       # number of ReadReq accesses(hits+misses)
system.cpu.icache.ReadReq_accesses::total     54765286                       # number of ReadReq accesses(hits+misses)
system.cpu.icache.demand_accesses::cpu.inst     54765286                       # number of demand (read+write) accesses
system.cpu.icache.demand_accesses::total     54765286                       # number of demand (read+write) accesses
system.cpu.icache.overall_accesses::cpu.inst     54765286                       # number of overall (read+write) accesses
system.cpu.icache.overall_accesses::total     54765286                       # number of overall (read+write) accesses
system.cpu.icache.ReadReq_miss_rate::cpu.inst     0.000006                       # miss rate for ReadReq accesses
system.cpu.icache.ReadReq_miss_rate::total     0.000006                       # miss rate for ReadReq accesses
system.cpu.icache.demand_miss_rate::cpu.inst     0.000006                       # miss rate for demand accesses
system.cpu.icache.demand_miss_rate::total     0.000006                       # miss rate for demand accesses
system.cpu.icache.overall_miss_rate::cpu.inst     0.000006                       # miss rate for overall accesses
system.cpu.icache.overall_miss_rate::total     0.000006                       # miss rate for overall accesses
system.cpu.icache.ReadReq_avg_miss_latency::cpu.inst 185482.142857                       # average ReadReq miss latency
system.cpu.icache.ReadReq_avg_miss_latency::total 185482.142857                       # average ReadReq miss latency
system.cpu.icache.demand_avg_miss_latency::cpu.inst 185482.142857                       # average overall miss latency
system.cpu.icache.demand_avg_miss_latency::total 185482.142857                       # average overall miss latency
system.cpu.icache.overall_avg_miss_latency::cpu.inst 185482.142857                       # average overall miss latency
system.cpu.icache.overall_avg_miss_latency::total 185482.142857                       # average overall miss latency
system.cpu.icache.blocked_cycles::no_mshrs            0                       # number of cycles access was blocked
system.cpu.icache.blocked_cycles::no_targets            0                       # number of cycles access was blocked
system.cpu.icache.blocked::no_mshrs                 0                       # number of cycles access was blocked
system.cpu.icache.blocked::no_targets               0                       # number of cycles access was blocked
system.cpu.icache.avg_blocked_cycles::no_mshrs          nan                       # average number of cycles each access was blocked
system.cpu.icache.avg_blocked_cycles::no_targets          nan                       # average number of cycles each access was blocked
system.cpu.icache.writebacks::writebacks           51                       # number of writebacks
system.cpu.icache.writebacks::total                51                       # number of writebacks
system.cpu.icache.ReadReq_mshr_misses::cpu.inst          336                       # number of ReadReq MSHR misses
system.cpu.icache.ReadReq_mshr_misses::total          336                       # number of ReadReq MSHR misses
system.cpu.icache.demand_mshr_misses::cpu.inst          336                       # number of demand (read+write) MSHR misses
system.cpu.icache.demand_mshr_misses::total          336                       # number of demand (read+write) MSHR misses
system.cpu.icache.overall_mshr_misses::cpu.inst          336                       # number of overall MSHR misses
system.cpu.icache.overall_mshr_misses::total          336                       # number of overall MSHR misses
system.cpu.icache.ReadReq_mshr_miss_latency::cpu.inst     61986000                       # number of ReadReq MSHR miss cycles
system.cpu.icache.ReadReq_mshr_miss_latency::total     61986000                       # number of ReadReq MSHR miss cycles
system.cpu.icache.demand_mshr_miss_latency::cpu.inst     61986000                       # number of demand (read+write) MSHR miss cycles
system.cpu.icache.demand_mshr_miss_latency::total     61986000                       # number of demand (read+write) MSHR miss cycles
system.cpu.icache.overall_mshr_miss_latency::cpu.inst     61986000                       # number of overall MSHR miss cycles
system.cpu.icache.overall_mshr_miss_latency::total     61986000                       # number of overall MSHR miss cycles
system.cpu.icache.ReadReq_mshr_miss_rate::cpu.inst     0.000006                       # mshr miss rate for ReadReq accesses
system.cpu.icache.ReadReq_mshr_miss_rate::total     0.000006                       # mshr miss rate for ReadReq accesses
system.cpu.icache.demand_mshr_miss_rate::cpu.inst     0.000006                       # mshr miss rate for demand accesses
system.cpu.icache.demand_mshr_miss_rate::total     0.000006                       # mshr miss rate for demand accesses
system.cpu.icache.overall_mshr_miss_rate::cpu.inst     0.000006                       # mshr miss rate for overall accesses
system.cpu.icache.overall_mshr_miss_rate::total     0.000006                       # mshr miss rate for overall accesses
system.cpu.icache.ReadReq_avg_mshr_miss_latency::cpu.inst 184482.142857                       # average ReadReq mshr miss latency
system.cpu.icache.ReadReq_avg_mshr_miss_latency::total 184482.142857                       # average ReadReq mshr miss latency
system.cpu.icache.demand_avg_mshr_miss_latency::cpu.inst 184482.142857                       # average overall mshr miss latency
system.cpu.icache.demand_avg_mshr_miss_latency::total 184482.142857                       # average overall mshr miss latency
system.cpu.icache.overall_avg_mshr_miss_latency::cpu.inst 184482.142857                       # average overall mshr miss latency
system.cpu.icache.overall_avg_mshr_miss_latency::total 184482.142857                       # average overall mshr miss latency
system.cpu.icache.replacements                     51                       # number of replacements
system.cpu.itb_walker_cache.tags.pwrStateResidencyTicks::UNDEFINED  88451081000                       # Cumulative time (in ticks) in various power states
system.cpu.itb_walker_cache.tags.tagsinuse            0                       # Cycle average of tags in use
system.cpu.itb_walker_cache.tags.total_refs            0                       # Total number of references to valid blocks.
system.cpu.itb_walker_cache.tags.sampled_refs            0                       # Sample count of references to valid blocks.
system.cpu.itb_walker_cache.tags.avg_refs          nan                       # Average number of references to valid blocks.
system.cpu.itb_walker_cache.tags.warmup_cycle            0                       # Cycle when the warmup percentage was hit.
system.cpu.itb_walker_cache.tags.tag_accesses            0                       # Number of tag accesses
system.cpu.itb_walker_cache.tags.data_accesses            0                       # Number of data accesses
system.cpu.itb_walker_cache.pwrStateResidencyTicks::UNDEFINED  88451081000                       # Cumulative time (in ticks) in various power states
system.cpu.itb_walker_cache.blocked_cycles::no_mshrs            0                       # number of cycles access was blocked
system.cpu.itb_walker_cache.blocked_cycles::no_targets            0                       # number of cycles access was blocked
system.cpu.itb_walker_cache.blocked::no_mshrs            0                       # number of cycles access was blocked
system.cpu.itb_walker_cache.blocked::no_targets            0                       # number of cycles access was blocked
system.cpu.itb_walker_cache.avg_blocked_cycles::no_mshrs          nan                       # average number of cycles each access was blocked
system.cpu.itb_walker_cache.avg_blocked_cycles::no_targets          nan                       # average number of cycles each access was blocked
system.cpu.itb_walker_cache.replacements            0                       # number of replacements
system.l2.tags.pwrStateResidencyTicks::UNDEFINED  88451081000                       # Cumulative time (in ticks) in various power states
system.l2.tags.tagsinuse                  2005.485831                       # Cycle average of tags in use
system.l2.tags.total_refs                      100197                       # Total number of references to valid blocks.
system.l2.tags.sampled_refs                     24128                       # Sample count of references to valid blocks.
system.l2.tags.avg_refs                      4.152727                       # Average number of references to valid blocks.
system.l2.tags.warmup_cycle                    428500                       # Cycle when the warmup percentage was hit.
system.l2.tags.occ_blocks::writebacks        1.324115                       # Average occupied blocks per requestor
system.l2.tags.occ_blocks::cpu.inst         14.355721                       # Average occupied blocks per requestor
system.l2.tags.occ_blocks::cpu.data       1989.805995                       # Average occupied blocks per requestor
system.l2.tags.occ_percent::writebacks       0.000647                       # Average percentage of cache occupancy
system.l2.tags.occ_percent::cpu.inst         0.007010                       # Average percentage of cache occupancy
system.l2.tags.occ_percent::cpu.data         0.971585                       # Average percentage of cache occupancy
system.l2.tags.occ_percent::total            0.979241                       # Average percentage of cache occupancy
system.l2.tags.occ_task_id_blocks::1024          2048                       # Occupied blocks per task id
system.l2.tags.age_task_id_blocks_1024::0           46                       # Occupied blocks per task id
system.l2.tags.age_task_id_blocks_1024::1           31                       # Occupied blocks per task id
system.l2.tags.age_task_id_blocks_1024::2           33                       # Occupied blocks per task id
system.l2.tags.age_task_id_blocks_1024::3           58                       # Occupied blocks per task id
system.l2.tags.age_task_id_blocks_1024::4         1880                       # Occupied blocks per task id
system.l2.tags.occ_task_id_percent::1024            1                       # Percentage of cache occupancy per task id
system.l2.tags.tag_accesses                    825704                       # Number of tag accesses
system.l2.tags.data_accesses                   825704                       # Number of data accesses
system.l2.pwrStateResidencyTicks::UNDEFINED  88451081000                       # Cumulative time (in ticks) in various power states
system.l2.WritebackDirty_hits::writebacks        43367                       # number of WritebackDirty hits
system.l2.WritebackDirty_hits::total            43367                       # number of WritebackDirty hits
system.l2.WritebackClean_hits::writebacks           51                       # number of WritebackClean hits
system.l2.WritebackClean_hits::total               51                       # number of WritebackClean hits
system.l2.UpgradeReq_hits::cpu.data              9579                       # number of UpgradeReq hits
system.l2.UpgradeReq_hits::total                 9579                       # number of UpgradeReq hits
system.l2.ReadExReq_hits::cpu.data                265                       # number of ReadExReq hits
system.l2.ReadExReq_hits::total                   265                       # number of ReadExReq hits
system.l2.ReadCleanReq_hits::cpu.inst              10                       # number of ReadCleanReq hits
system.l2.ReadCleanReq_hits::total                 10                       # number of ReadCleanReq hits
system.l2.ReadSharedReq_hits::cpu.data          21337                       # number of ReadSharedReq hits
system.l2.ReadSharedReq_hits::total             21337                       # number of ReadSharedReq hits
system.l2.demand_hits::cpu.inst                    10                       # number of demand (read+write) hits
system.l2.demand_hits::cpu.data                 21602                       # number of demand (read+write) hits
system.l2.demand_hits::total                    21612                       # number of demand (read+write) hits
system.l2.overall_hits::cpu.inst                   10                       # number of overall hits
system.l2.overall_hits::cpu.data                21602                       # number of overall hits
system.l2.overall_hits::total                   21612                       # number of overall hits
system.l2.ReadExReq_misses::cpu.data             6392                       # number of ReadExReq misses
system.l2.ReadExReq_misses::total                6392                       # number of ReadExReq misses
system.l2.ReadCleanReq_misses::cpu.inst           326                       # number of ReadCleanReq misses
system.l2.ReadCleanReq_misses::total              326                       # number of ReadCleanReq misses
system.l2.ReadSharedReq_misses::cpu.data        17378                       # number of ReadSharedReq misses
system.l2.ReadSharedReq_misses::total           17378                       # number of ReadSharedReq misses
system.l2.demand_misses::cpu.inst                 326                       # number of demand (read+write) misses
system.l2.demand_misses::cpu.data               23770                       # number of demand (read+write) misses
system.l2.demand_misses::total                  24096                       # number of demand (read+write) misses
system.l2.overall_misses::cpu.inst                326                       # number of overall misses
system.l2.overall_misses::cpu.data              23770                       # number of overall misses
system.l2.overall_misses::total                 24096                       # number of overall misses
system.l2.ReadExReq_miss_latency::cpu.data   1173019000                       # number of ReadExReq miss cycles
system.l2.ReadExReq_miss_latency::total    1173019000                       # number of ReadExReq miss cycles
system.l2.ReadCleanReq_miss_latency::cpu.inst     61375500                       # number of ReadCleanReq miss cycles
system.l2.ReadCleanReq_miss_latency::total     61375500                       # number of ReadCleanReq miss cycles
system.l2.ReadSharedReq_miss_latency::cpu.data   3028616000                       # number of ReadSharedReq miss cycles
system.l2.ReadSharedReq_miss_latency::total   3028616000                       # number of ReadSharedReq miss cycles
system.l2.demand_miss_latency::cpu.inst      61375500                       # number of demand (read+write) miss cycles
system.l2.demand_miss_latency::cpu.data    4201635000                       # number of demand (read+write) miss cycles
system.l2.demand_miss_latency::total       4263010500                       # number of demand (read+write) miss cycles
system.l2.overall_miss_latency::cpu.inst     61375500                       # number of overall miss cycles
system.l2.overall_miss_latency::cpu.data   4201635000                       # number of overall miss cycles
system.l2.overall_miss_latency::total      4263010500                       # number of overall miss cycles
system.l2.WritebackDirty_accesses::writebacks        43367                       # number of WritebackDirty accesses(hits+misses)
system.l2.WritebackDirty_accesses::total        43367                       # number of WritebackDirty accesses(hits+misses)
system.l2.WritebackClean_accesses::writebacks           51                       # number of WritebackClean accesses(hits+misses)
system.l2.WritebackClean_accesses::total           51                       # number of WritebackClean accesses(hits+misses)
system.l2.UpgradeReq_accesses::cpu.data          9579                       # number of UpgradeReq accesses(hits+misses)
system.l2.UpgradeReq_accesses::total             9579                       # number of UpgradeReq accesses(hits+misses)
system.l2.ReadExReq_accesses::cpu.data           6657                       # number of ReadExReq accesses(hits+misses)
system.l2.ReadExReq_accesses::total              6657                       # number of ReadExReq accesses(hits+misses)
system.l2.ReadCleanReq_accesses::cpu.inst          336                       # number of ReadCleanReq accesses(hits+misses)
system.l2.ReadCleanReq_accesses::total            336                       # number of ReadCleanReq accesses(hits+misses)
system.l2.ReadSharedReq_accesses::cpu.data        38715                       # number of ReadSharedReq accesses(hits+misses)
system.l2.ReadSharedReq_accesses::total         38715                       # number of ReadSharedReq accesses(hits+misses)
system.l2.demand_accesses::cpu.inst               336                       # number of demand (read+write) accesses
system.l2.demand_accesses::cpu.data             45372                       # number of demand (read+write) accesses
system.l2.demand_accesses::total                45708                       # number of demand (read+write) accesses
system.l2.overall_accesses::cpu.inst              336                       # number of overall (read+write) accesses
system.l2.overall_accesses::cpu.data            45372                       # number of overall (read+write) accesses
system.l2.overall_accesses::total               45708                       # number of overall (read+write) accesses
system.l2.ReadExReq_miss_rate::cpu.data      0.960192                       # miss rate for ReadExReq accesses
system.l2.ReadExReq_miss_rate::total         0.960192                       # miss rate for ReadExReq accesses
system.l2.ReadCleanReq_miss_rate::cpu.inst     0.970238                       # miss rate for ReadCleanReq accesses
system.l2.ReadCleanReq_miss_rate::total      0.970238                       # miss rate for ReadCleanReq accesses
system.l2.ReadSharedReq_miss_rate::cpu.data     0.448870                       # miss rate for ReadSharedReq accesses
system.l2.ReadSharedReq_miss_rate::total     0.448870                       # miss rate for ReadSharedReq accesses
system.l2.demand_miss_rate::cpu.inst         0.970238                       # miss rate for demand accesses
system.l2.demand_miss_rate::cpu.data         0.523891                       # miss rate for demand accesses
system.l2.demand_miss_rate::total            0.527172                       # miss rate for demand accesses
system.l2.overall_miss_rate::cpu.inst        0.970238                       # miss rate for overall accesses
system.l2.overall_miss_rate::cpu.data        0.523891                       # miss rate for overall accesses
system.l2.overall_miss_rate::total           0.527172                       # miss rate for overall accesses
system.l2.ReadExReq_avg_miss_latency::cpu.data 183513.610763                       # average ReadExReq miss latency
system.l2.ReadExReq_avg_miss_latency::total 183513.610763                       # average ReadExReq miss latency
system.l2.ReadCleanReq_avg_miss_latency::cpu.inst 188268.404908                       # average ReadCleanReq miss latency
system.l2.ReadCleanReq_avg_miss_latency::total 188268.404908                       # average ReadCleanReq miss latency
system.l2.ReadSharedReq_avg_miss_latency::cpu.data 174278.743239                       # average ReadSharedReq miss latency
system.l2.ReadSharedReq_avg_miss_latency::total 174278.743239                       # average ReadSharedReq miss latency
system.l2.demand_avg_miss_latency::cpu.inst 188268.404908                       # average overall miss latency
system.l2.demand_avg_miss_latency::cpu.data 176762.095078                       # average overall miss latency
system.l2.demand_avg_miss_latency::total 176917.766434                       # average overall miss latency
system.l2.overall_avg_miss_latency::cpu.inst 188268.404908                       # average overall miss latency
system.l2.overall_avg_miss_latency::cpu.data 176762.095078                       # average overall miss latency
system.l2.overall_avg_miss_latency::total 176917.766434                       # average overall miss latency
system.l2.blocked_cycles::no_mshrs                  0                       # number of cycles access was blocked
system.l2.blocked_cycles::no_targets                0                       # number of cycles access was blocked
system.l2.blocked::no_mshrs                         0                       # number of cycles access was blocked
system.l2.blocked::no_targets                       0                       # number of cycles access was blocked
system.l2.avg_blocked_cycles::no_mshrs            nan                       # average number of cycles each access was blocked
system.l2.avg_blocked_cycles::no_targets          nan                       # average number of cycles each access was blocked
system.l2.writebacks::writebacks                21666                       # number of writebacks
system.l2.writebacks::total                     21666                       # number of writebacks
system.l2.ReadExReq_mshr_misses::cpu.data         6392                       # number of ReadExReq MSHR misses
system.l2.ReadExReq_mshr_misses::total           6392                       # number of ReadExReq MSHR misses
system.l2.ReadCleanReq_mshr_misses::cpu.inst          326                       # number of ReadCleanReq MSHR misses
system.l2.ReadCleanReq_mshr_misses::total          326                       # number of ReadCleanReq MSHR misses
system.l2.ReadSharedReq_mshr_misses::cpu.data        17378                       # number of ReadSharedReq MSHR misses
system.l2.ReadSharedReq_mshr_misses::total        17378                       # number of ReadSharedReq MSHR misses
system.l2.demand_mshr_misses::cpu.inst            326                       # number of demand (read+write) MSHR misses
system.l2.demand_mshr_misses::cpu.data          23770                       # number of demand (read+write) MSHR misses
system.l2.demand_mshr_misses::total             24096                       # number of demand (read+write) MSHR misses
system.l2.overall_mshr_misses::cpu.inst           326                       # number of overall MSHR misses
system.l2.overall_mshr_misses::cpu.data         23770                       # number of overall MSHR misses
system.l2.overall_mshr_misses::total            24096                       # number of overall MSHR misses
system.l2.ReadExReq_mshr_miss_latency::cpu.data   1109099000                       # number of ReadExReq MSHR miss cycles
system.l2.ReadExReq_mshr_miss_latency::total   1109099000                       # number of ReadExReq MSHR miss cycles
system.l2.ReadCleanReq_mshr_miss_latency::cpu.inst     58115500                       # number of ReadCleanReq MSHR miss cycles
system.l2.ReadCleanReq_mshr_miss_latency::total     58115500                       # number of ReadCleanReq MSHR miss cycles
system.l2.ReadSharedReq_mshr_miss_latency::cpu.data   2854836000                       # number of ReadSharedReq MSHR miss cycles
system.l2.ReadSharedReq_mshr_miss_latency::total   2854836000                       # number of ReadSharedReq MSHR miss cycles
system.l2.demand_mshr_miss_latency::cpu.inst     58115500                       # number of demand (read+write) MSHR miss cycles
system.l2.demand_mshr_miss_latency::cpu.data   3963935000                       # number of demand (read+write) MSHR miss cycles
system.l2.demand_mshr_miss_latency::total   4022050500                       # number of demand (read+write) MSHR miss cycles
system.l2.overall_mshr_miss_latency::cpu.inst     58115500                       # number of overall MSHR miss cycles
system.l2.overall_mshr_miss_latency::cpu.data   3963935000                       # number of overall MSHR miss cycles
system.l2.overall_mshr_miss_latency::total   4022050500                       # number of overall MSHR miss cycles
system.l2.ReadExReq_mshr_miss_rate::cpu.data     0.960192                       # mshr miss rate for ReadExReq accesses
system.l2.ReadExReq_mshr_miss_rate::total     0.960192                       # mshr miss rate for ReadExReq accesses
system.l2.ReadCleanReq_mshr_miss_rate::cpu.inst     0.970238                       # mshr miss rate for ReadCleanReq accesses
system.l2.ReadCleanReq_mshr_miss_rate::total     0.970238                       # mshr miss rate for ReadCleanReq accesses
system.l2.ReadSharedReq_mshr_miss_rate::cpu.data     0.448870                       # mshr miss rate for ReadSharedReq accesses
system.l2.ReadSharedReq_mshr_miss_rate::total     0.448870                       # mshr miss rate for ReadSharedReq accesses
system.l2.demand_mshr_miss_rate::cpu.inst     0.970238                       # mshr miss rate for demand accesses
system.l2.demand_mshr_miss_rate::cpu.data     0.523891                       # mshr miss rate for demand accesses
system.l2.demand_mshr_miss_rate::total       0.527172                       # mshr miss rate for demand accesses
system.l2.overall_mshr_miss_rate::cpu.inst     0.970238                       # mshr miss rate for overall accesses
system.l2.overall_mshr_miss_rate::cpu.data     0.523891                       # mshr miss rate for overall accesses
system.l2.overall_mshr_miss_rate::total      0.527172                       # mshr miss rate for overall accesses
system.l2.ReadExReq_avg_mshr_miss_latency::cpu.data 173513.610763                       # average ReadExReq mshr miss latency
system.l2.ReadExReq_avg_mshr_miss_latency::total 173513.610763                       # average ReadExReq mshr miss latency
system.l2.ReadCleanReq_avg_mshr_miss_latency::cpu.inst 178268.404908                       # average ReadCleanReq mshr miss latency
system.l2.ReadCleanReq_avg_mshr_miss_latency::total 178268.404908                       # average ReadCleanReq mshr miss latency
system.l2.ReadSharedReq_avg_mshr_miss_latency::cpu.data 164278.743239                       # average ReadSharedReq mshr miss latency
system.l2.ReadSharedReq_avg_mshr_miss_latency::total 164278.743239                       # average ReadSharedReq mshr miss latency
system.l2.demand_avg_mshr_miss_latency::cpu.inst 178268.404908                       # average overall mshr miss latency
system.l2.demand_avg_mshr_miss_latency::cpu.data 166762.095078                       # average overall mshr miss latency
system.l2.demand_avg_mshr_miss_latency::total 166917.766434                       # average overall mshr miss latency
system.l2.overall_avg_mshr_miss_latency::cpu.inst 178268.404908                       # average overall mshr miss latency
system.l2.overall_avg_mshr_miss_latency::cpu.data 166762.095078                       # average overall mshr miss latency
system.l2.overall_avg_mshr_miss_latency::total 166917.766434                       # average overall mshr miss latency
system.l2.replacements                          22080                       # number of replacements
system.l3.tags.pwrStateResidencyTicks::UNDEFINED  88451081000                       # Cumulative time (in ticks) in various power states
system.l3.tags.tagsinuse                  3858.063305                       # Cycle average of tags in use
system.l3.tags.total_refs                       45819                       # Total number of references to valid blocks.
system.l3.tags.sampled_refs                     18954                       # Sample count of references to valid blocks.
system.l3.tags.avg_refs                      2.417379                       # Average number of references to valid blocks.
system.l3.tags.warmup_cycle                    418000                       # Cycle when the warmup percentage was hit.
system.l3.tags.occ_blocks::writebacks      571.916105                       # Average occupied blocks per requestor
system.l3.tags.occ_blocks::cpu.inst         13.588041                       # Average occupied blocks per requestor
system.l3.tags.occ_blocks::cpu.data       3272.559160                       # Average occupied blocks per requestor
system.l3.tags.occ_percent::writebacks       0.139628                       # Average percentage of cache occupancy
system.l3.tags.occ_percent::cpu.inst         0.003317                       # Average percentage of cache occupancy
system.l3.tags.occ_percent::cpu.data         0.798965                       # Average percentage of cache occupancy
system.l3.tags.occ_percent::total            0.941910                       # Average percentage of cache occupancy
system.l3.tags.occ_task_id_blocks::1024          4096                       # Occupied blocks per task id
system.l3.tags.age_task_id_blocks_1024::0           35                       # Occupied blocks per task id
system.l3.tags.age_task_id_blocks_1024::1           23                       # Occupied blocks per task id
system.l3.tags.age_task_id_blocks_1024::2           33                       # Occupied blocks per task id
system.l3.tags.age_task_id_blocks_1024::3           42                       # Occupied blocks per task id
system.l3.tags.age_task_id_blocks_1024::4         3963                       # Occupied blocks per task id
system.l3.tags.occ_task_id_percent::1024            1                       # Percentage of cache occupancy per task id
system.l3.tags.tag_accesses                     64849                       # Number of tag accesses
system.l3.tags.data_accesses                    64849                       # Number of data accesses
system.l3.pwrStateResidencyTicks::UNDEFINED  88451081000                       # Cumulative time (in ticks) in various power states
system.l3.WritebackDirty_hits::writebacks        21665                       # number of WritebackDirty hits
system.l3.WritebackDirty_hits::total            21665                       # number of WritebackDirty hits
system.l3.ReadExReq_hits::cpu.data                 31                       # number of ReadExReq hits
system.l3.ReadExReq_hits::total                    31                       # number of ReadExReq hits
system.l3.ReadSharedReq_hits::cpu.data          10615                       # number of ReadSharedReq hits
system.l3.ReadSharedReq_hits::total             10615                       # number of ReadSharedReq hits
system.l3.demand_hits::cpu.data                 10646                       # number of demand (read+write) hits
system.l3.demand_hits::total                    10646                       # number of demand (read+write) hits
system.l3.overall_hits::cpu.data                10646                       # number of overall hits
system.l3.overall_hits::total                   10646                       # number of overall hits
system.l3.ReadExReq_misses::cpu.data             6361                       # number of ReadExReq misses
system.l3.ReadExReq_misses::total                6361                       # number of ReadExReq misses
system.l3.ReadSharedReq_misses::cpu.inst          326                       # number of ReadSharedReq misses
system.l3.ReadSharedReq_misses::cpu.data         6763                       # number of ReadSharedReq misses
system.l3.ReadSharedReq_misses::total            7089                       # number of ReadSharedReq misses
system.l3.demand_misses::cpu.inst                 326                       # number of demand (read+write) misses
system.l3.demand_misses::cpu.data               13124                       # number of demand (read+write) misses
system.l3.demand_misses::total                  13450                       # number of demand (read+write) misses
system.l3.overall_misses::cpu.inst                326                       # number of overall misses
system.l3.overall_misses::cpu.data              13124                       # number of overall misses
system.l3.overall_misses::total                 13450                       # number of overall misses
system.l3.ReadExReq_miss_latency::cpu.data   1038275500                       # number of ReadExReq miss cycles
system.l3.ReadExReq_miss_latency::total    1038275500                       # number of ReadExReq miss cycles
system.l3.ReadSharedReq_miss_latency::cpu.inst     54529500                       # number of ReadSharedReq miss cycles
system.l3.ReadSharedReq_miss_latency::cpu.data   2488530500                       # number of ReadSharedReq miss cycles
system.l3.ReadSharedReq_miss_latency::total   2543060000                       # number of ReadSharedReq miss cycles
system.l3.demand_miss_latency::cpu.inst      54529500                       # number of demand (read+write) miss cycles
system.l3.demand_miss_latency::cpu.data    3526806000                       # number of demand (read+write) miss cycles
system.l3.demand_miss_latency::total       3581335500                       # number of demand (read+write) miss cycles
system.l3.overall_miss_latency::cpu.inst     54529500                       # number of overall miss cycles
system.l3.overall_miss_latency::cpu.data   3526806000                       # number of overall miss cycles
system.l3.overall_miss_latency::total      3581335500                       # number of overall miss cycles
system.l3.WritebackDirty_accesses::writebacks        21665                       # number of WritebackDirty accesses(hits+misses)
system.l3.WritebackDirty_accesses::total        21665                       # number of WritebackDirty accesses(hits+misses)
system.l3.ReadExReq_accesses::cpu.data           6392                       # number of ReadExReq accesses(hits+misses)
system.l3.ReadExReq_accesses::total              6392                       # number of ReadExReq accesses(hits+misses)
system.l3.ReadSharedReq_accesses::cpu.inst          326                       # number of ReadSharedReq accesses(hits+misses)
system.l3.ReadSharedReq_accesses::cpu.data        17378                       # number of ReadSharedReq accesses(hits+misses)
system.l3.ReadSharedReq_accesses::total         17704                       # number of ReadSharedReq accesses(hits+misses)
system.l3.demand_accesses::cpu.inst               326                       # number of demand (read+write) accesses
system.l3.demand_accesses::cpu.data             23770                       # number of demand (read+write) accesses
system.l3.demand_accesses::total                24096                       # number of demand (read+write) accesses
system.l3.overall_accesses::cpu.inst              326                       # number of overall (read+write) accesses
system.l3.overall_accesses::cpu.data            23770                       # number of overall (read+write) accesses
system.l3.overall_accesses::total               24096                       # number of overall (read+write) accesses
system.l3.ReadExReq_miss_rate::cpu.data      0.995150                       # miss rate for ReadExReq accesses
system.l3.ReadExReq_miss_rate::total         0.995150                       # miss rate for ReadExReq accesses
system.l3.ReadSharedReq_miss_rate::cpu.inst            1                       # miss rate for ReadSharedReq accesses
system.l3.ReadSharedReq_miss_rate::cpu.data     0.389170                       # miss rate for ReadSharedReq accesses
system.l3.ReadSharedReq_miss_rate::total     0.400418                       # miss rate for ReadSharedReq accesses
system.l3.demand_miss_rate::cpu.inst                1                       # miss rate for demand accesses
system.l3.demand_miss_rate::cpu.data         0.552125                       # miss rate for demand accesses
system.l3.demand_miss_rate::total            0.558184                       # miss rate for demand accesses
system.l3.overall_miss_rate::cpu.inst               1                       # miss rate for overall accesses
system.l3.overall_miss_rate::cpu.data        0.552125                       # miss rate for overall accesses
system.l3.overall_miss_rate::total           0.558184                       # miss rate for overall accesses
system.l3.ReadExReq_avg_miss_latency::cpu.data 163225.200440                       # average ReadExReq miss latency
system.l3.ReadExReq_avg_miss_latency::total 163225.200440                       # average ReadExReq miss latency
system.l3.ReadSharedReq_avg_miss_latency::cpu.inst 167268.404908                       # average ReadSharedReq miss latency
system.l3.ReadSharedReq_avg_miss_latency::cpu.data 367962.516635                       # average ReadSharedReq miss latency
system.l3.ReadSharedReq_avg_miss_latency::total 358733.248695                       # average ReadSharedReq miss latency
system.l3.demand_avg_miss_latency::cpu.inst 167268.404908                       # average overall miss latency
system.l3.demand_avg_miss_latency::cpu.data 268729.503200                       # average overall miss latency
system.l3.demand_avg_miss_latency::total 266270.297398                       # average overall miss latency
system.l3.overall_avg_miss_latency::cpu.inst 167268.404908                       # average overall miss latency
system.l3.overall_avg_miss_latency::cpu.data 268729.503200                       # average overall miss latency
system.l3.overall_avg_miss_latency::total 266270.297398                       # average overall miss latency
system.l3.blocked_cycles::no_mshrs                  0                       # number of cycles access was blocked
system.l3.blocked_cycles::no_targets                0                       # number of cycles access was blocked
system.l3.blocked::no_mshrs                         0                       # number of cycles access was blocked
system.l3.blocked::no_targets                       0                       # number of cycles access was blocked
system.l3.avg_blocked_cycles::no_mshrs            nan                       # average number of cycles each access was blocked
system.l3.avg_blocked_cycles::no_targets          nan                       # average number of cycles each access was blocked
system.l3.writebacks::writebacks                 8853                       # number of writebacks
system.l3.writebacks::total                      8853                       # number of writebacks
system.l3.CleanEvict_mshr_misses::writebacks           76                       # number of CleanEvict MSHR misses
system.l3.CleanEvict_mshr_misses::total            76                       # number of CleanEvict MSHR misses
system.l3.ReadExReq_mshr_misses::cpu.data         6361                       # number of ReadExReq MSHR misses
system.l3.ReadExReq_mshr_misses::total           6361                       # number of ReadExReq MSHR misses
system.l3.ReadSharedReq_mshr_misses::cpu.inst          326                       # number of ReadSharedReq MSHR misses
system.l3.ReadSharedReq_mshr_misses::cpu.data         6763                       # number of ReadSharedReq MSHR misses
system.l3.ReadSharedReq_mshr_misses::total         7089                       # number of ReadSharedReq MSHR misses
system.l3.demand_mshr_misses::cpu.inst            326                       # number of demand (read+write) MSHR misses
system.l3.demand_mshr_misses::cpu.data          13124                       # number of demand (read+write) MSHR misses
system.l3.demand_mshr_misses::total             13450                       # number of demand (read+write) MSHR misses
system.l3.overall_mshr_misses::cpu.inst           326                       # number of overall MSHR misses
system.l3.overall_mshr_misses::cpu.data         13124                       # number of overall MSHR misses
system.l3.overall_mshr_misses::total            13450                       # number of overall MSHR misses
system.l3.ReadExReq_mshr_miss_latency::cpu.data    974665500                       # number of ReadExReq MSHR miss cycles
system.l3.ReadExReq_mshr_miss_latency::total    974665500                       # number of ReadExReq MSHR miss cycles
system.l3.ReadSharedReq_mshr_miss_latency::cpu.inst     51269500                       # number of ReadSharedReq MSHR miss cycles
system.l3.ReadSharedReq_mshr_miss_latency::cpu.data   2420900500                       # number of ReadSharedReq MSHR miss cycles
system.l3.ReadSharedReq_mshr_miss_latency::total   2472170000                       # number of ReadSharedReq MSHR miss cycles
system.l3.demand_mshr_miss_latency::cpu.inst     51269500                       # number of demand (read+write) MSHR miss cycles
system.l3.demand_mshr_miss_latency::cpu.data   3395566000                       # number of demand (read+write) MSHR miss cycles
system.l3.demand_mshr_miss_latency::total   3446835500                       # number of demand (read+write) MSHR miss cycles
system.l3.overall_mshr_miss_latency::cpu.inst     51269500                       # number of overall MSHR miss cycles
system.l3.overall_mshr_miss_latency::cpu.data   3395566000                       # number of overall MSHR miss cycles
system.l3.overall_mshr_miss_latency::total   3446835500                       # number of overall MSHR miss cycles
system.l3.CleanEvict_mshr_miss_rate::writebacks          inf                       # mshr miss rate for CleanEvict accesses
system.l3.CleanEvict_mshr_miss_rate::total          inf                       # mshr miss rate for CleanEvict accesses
system.l3.ReadExReq_mshr_miss_rate::cpu.data     0.995150                       # mshr miss rate for ReadExReq accesses
system.l3.ReadExReq_mshr_miss_rate::total     0.995150                       # mshr miss rate for ReadExReq accesses
system.l3.ReadSharedReq_mshr_miss_rate::cpu.inst            1                       # mshr miss rate for ReadSharedReq accesses
system.l3.ReadSharedReq_mshr_miss_rate::cpu.data     0.389170                       # mshr miss rate for ReadSharedReq accesses
system.l3.ReadSharedReq_mshr_miss_rate::total     0.400418                       # mshr miss rate for ReadSharedReq accesses
system.l3.demand_mshr_miss_rate::cpu.inst            1                       # mshr miss rate for demand accesses
system.l3.demand_mshr_miss_rate::cpu.data     0.552125                       # mshr miss rate for demand accesses
system.l3.demand_mshr_miss_rate::total       0.558184                       # mshr miss rate for demand accesses
system.l3.overall_mshr_miss_rate::cpu.inst            1                       # mshr miss rate for overall accesses
system.l3.overall_mshr_miss_rate::cpu.data     0.552125                       # mshr miss rate for overall accesses
system.l3.overall_mshr_miss_rate::total      0.558184                       # mshr miss rate for overall accesses
system.l3.ReadExReq_avg_mshr_miss_latency::cpu.data 153225.200440                       # average ReadExReq mshr miss latency
system.l3.ReadExReq_avg_mshr_miss_latency::total 153225.200440                       # average ReadExReq mshr miss latency
system.l3.ReadSharedReq_avg_mshr_miss_latency::cpu.inst 157268.404908                       # average ReadSharedReq mshr miss latency
system.l3.ReadSharedReq_avg_mshr_miss_latency::cpu.data 357962.516635                       # average ReadSharedReq mshr miss latency
system.l3.ReadSharedReq_avg_mshr_miss_latency::total 348733.248695                       # average ReadSharedReq mshr miss latency
system.l3.demand_avg_mshr_miss_latency::cpu.inst 157268.404908                       # average overall mshr miss latency
system.l3.demand_avg_mshr_miss_latency::cpu.data 258729.503200                       # average overall mshr miss latency
system.l3.demand_avg_mshr_miss_latency::total 256270.297398                       # average overall mshr miss latency
system.l3.overall_avg_mshr_miss_latency::cpu.inst 157268.404908                       # average overall mshr miss latency
system.l3.overall_avg_mshr_miss_latency::cpu.data 258729.503200                       # average overall mshr miss latency
system.l3.overall_avg_mshr_miss_latency::total 256270.297398                       # average overall mshr miss latency
system.l3.replacements                          14858                       # number of replacements
system.membus.snoop_filter.tot_requests         24135                       # Total number of requests made to the snoop filter.
system.membus.snoop_filter.hit_single_requests        10685                       # Number of requests hitting in the snoop filter with a single holder of the requested data.
system.membus.snoop_filter.hit_multi_requests            0                       # Number of requests hitting in the snoop filter with multiple (>1) holders of the requested data.
system.membus.snoop_filter.tot_snoops               0                       # Total number of snoops made to the snoop filter.
system.membus.snoop_filter.hit_single_snoops            0                       # Number of snoops hitting in the snoop filter with a single holder of the requested data.
system.membus.snoop_filter.hit_multi_snoops            0                       # Number of snoops hitting in the snoop filter with multiple (>1) holders of the requested data.
system.membus.pwrStateResidencyTicks::UNDEFINED  88451081000                       # Cumulative time (in ticks) in various power states
system.membus.trans_dist::ReadResp               7089                       # Transaction distribution
system.membus.trans_dist::WritebackDirty         8853                       # Transaction distribution
system.membus.trans_dist::CleanEvict              100                       # Transaction distribution
system.membus.trans_dist::ReadExReq              6361                       # Transaction distribution
system.membus.trans_dist::ReadExResp             6361                       # Transaction distribution
system.membus.trans_dist::ReadSharedReq          7089                       # Transaction distribution
system.membus.pkt_count_system.l3.mem_side::system.mem_ctrls.port        35853                       # Packet count per connected master and slave (bytes)
system.membus.pkt_count_system.l3.mem_side::total        35853                       # Packet count per connected master and slave (bytes)
system.membus.pkt_count::total                  35853                       # Packet count per connected master and slave (bytes)
system.membus.pkt_size_system.l3.mem_side::system.mem_ctrls.port      1427392                       # Cumulative packet size per connected master and slave (bytes)
system.membus.pkt_size_system.l3.mem_side::total      1427392                       # Cumulative packet size per connected master and slave (bytes)
system.membus.pkt_size::total                 1427392                       # Cumulative packet size per connected master and slave (bytes)
system.membus.snoops                                0                       # Total snoops (count)
system.membus.snoopTraffic                          0                       # Total snoop traffic (bytes)
system.membus.snoop_fanout::samples             13450                       # Request fanout histogram
system.membus.snoop_fanout::mean                    0                       # Request fanout histogram
system.membus.snoop_fanout::stdev                   0                       # Request fanout histogram
system.membus.snoop_fanout::underflows              0      0.00%      0.00% # Request fanout histogram
system.membus.snoop_fanout::0                   13450    100.00%    100.00% # Request fanout histogram
system.membus.snoop_fanout::1                       0      0.00%    100.00% # Request fanout histogram
system.membus.snoop_fanout::overflows               0      0.00%    100.00% # Request fanout histogram
system.membus.snoop_fanout::min_value               0                       # Request fanout histogram
system.membus.snoop_fanout::max_value               0                       # Request fanout histogram
system.membus.snoop_fanout::total               13450                       # Request fanout histogram
system.membus.reqLayer2.occupancy            59549500                       # Layer occupancy (ticks)
system.membus.reqLayer2.utilization               0.1                       # Layer utilization (%)
system.membus.respLayer1.occupancy           67252500                       # Layer occupancy (ticks)
system.membus.respLayer1.utilization              0.1                       # Layer utilization (%)
system.tol2bus.snoop_filter.tot_requests       100198                       # Total number of requests made to the snoop filter.
system.tol2bus.snoop_filter.hit_single_requests        54490                       # Number of requests hitting in the snoop filter with a single holder of the requested data.
system.tol2bus.snoop_filter.hit_multi_requests            1                       # Number of requests hitting in the snoop filter with multiple (>1) holders of the requested data.
system.tol2bus.snoop_filter.tot_snoops           2730                       # Total number of snoops made to the snoop filter.
system.tol2bus.snoop_filter.hit_single_snoops         2730                       # Number of snoops hitting in the snoop filter with a single holder of the requested data.
system.tol2bus.snoop_filter.hit_multi_snoops            0                       # Number of snoops hitting in the snoop filter with multiple (>1) holders of the requested data.
system.tol2bus.pwrStateResidencyTicks::UNDEFINED  88451081000                       # Cumulative time (in ticks) in various power states
system.tol2bus.trans_dist::ReadResp             39051                       # Transaction distribution
system.tol2bus.trans_dist::WritebackDirty        73886                       # Transaction distribution
system.tol2bus.trans_dist::WritebackClean           51                       # Transaction distribution
system.tol2bus.trans_dist::CleanEvict            7912                       # Transaction distribution
system.tol2bus.trans_dist::UpgradeReq            9579                       # Transaction distribution
system.tol2bus.trans_dist::UpgradeResp           9579                       # Transaction distribution
system.tol2bus.trans_dist::ReadExReq             6657                       # Transaction distribution
system.tol2bus.trans_dist::ReadExResp            6657                       # Transaction distribution
system.tol2bus.trans_dist::ReadCleanReq           336                       # Transaction distribution
system.tol2bus.trans_dist::ReadSharedReq        38715                       # Transaction distribution
system.tol2bus.pkt_count_system.cpu.icache.mem_side::system.l2.cpu_side          723                       # Packet count per connected master and slave (bytes)
system.tol2bus.pkt_count_system.cpu.dcache.mem_side::system.l2.cpu_side       154762                       # Packet count per connected master and slave (bytes)
system.tol2bus.pkt_count::total                155485                       # Packet count per connected master and slave (bytes)
system.tol2bus.pkt_size_system.cpu.icache.mem_side::system.l2.cpu_side        24768                       # Cumulative packet size per connected master and slave (bytes)
system.tol2bus.pkt_size_system.cpu.dcache.mem_side::system.l2.cpu_side      5679296                       # Cumulative packet size per connected master and slave (bytes)
system.tol2bus.pkt_size::total                5704064                       # Cumulative packet size per connected master and slave (bytes)
system.tol2bus.snoops                           36938                       # Total snoops (count)
system.tol2bus.snoopTraffic                   1953216                       # Total snoop traffic (bytes)
system.tol2bus.snoop_fanout::samples            92225                       # Request fanout histogram
system.tol2bus.snoop_fanout::mean            0.029612                       # Request fanout histogram
system.tol2bus.snoop_fanout::stdev           0.169516                       # Request fanout histogram
system.tol2bus.snoop_fanout::underflows             0      0.00%      0.00% # Request fanout histogram
system.tol2bus.snoop_fanout::0                  89494     97.04%     97.04% # Request fanout histogram
system.tol2bus.snoop_fanout::1                   2731      2.96%    100.00% # Request fanout histogram
system.tol2bus.snoop_fanout::2                      0      0.00%    100.00% # Request fanout histogram
system.tol2bus.snoop_fanout::3                      0      0.00%    100.00% # Request fanout histogram
system.tol2bus.snoop_fanout::4                      0      0.00%    100.00% # Request fanout histogram
system.tol2bus.snoop_fanout::overflows              0      0.00%    100.00% # Request fanout histogram
system.tol2bus.snoop_fanout::min_value              0                       # Request fanout histogram
system.tol2bus.snoop_fanout::max_value              1                       # Request fanout histogram
system.tol2bus.snoop_fanout::total              92225                       # Request fanout histogram
system.tol2bus.reqLayer0.occupancy           93517000                       # Layer occupancy (ticks)
system.tol2bus.reqLayer0.utilization              0.1                       # Layer utilization (%)
system.tol2bus.respLayer0.occupancy            504000                       # Layer occupancy (ticks)
system.tol2bus.respLayer0.utilization             0.0                       # Layer utilization (%)
system.tol2bus.respLayer1.occupancy          72847500                       # Layer occupancy (ticks)
system.tol2bus.respLayer1.utilization             0.1                       # Layer utilization (%)
system.tol3bus.pwrStateResidencyTicks::UNDEFINED  88451081000                       # Cumulative time (in ticks) in various power states
system.tol3bus.trans_dist::ReadResp             17704                       # Transaction distribution
system.tol3bus.trans_dist::WritebackDirty        30518                       # Transaction distribution
system.tol3bus.trans_dist::CleanEvict            6139                       # Transaction distribution
system.tol3bus.trans_dist::ReadExReq             6392                       # Transaction distribution
system.tol3bus.trans_dist::ReadExResp            6392                       # Transaction distribution
system.tol3bus.trans_dist::ReadSharedReq        17704                       # Transaction distribution
system.tol3bus.pkt_count_system.l2.mem_side::system.l3.cpu_side        69991                       # Packet count per connected master and slave (bytes)
system.tol3bus.pkt_size_system.l2.mem_side::system.l3.cpu_side      2928704                       # Cumulative packet size per connected master and slave (bytes)
system.tol3bus.snoops                           14858                       # Total snoops (count)
system.tol3bus.snoopTraffic                    566592                       # Total snoop traffic (bytes)
system.tol3bus.snoop_fanout::samples            60753                       # Request fanout histogram
system.tol3bus.snoop_fanout::mean            0.244564                       # Request fanout histogram
system.tol3bus.snoop_fanout::stdev           0.429832                       # Request fanout histogram
system.tol3bus.snoop_fanout::underflows             0      0.00%      0.00% # Request fanout histogram
system.tol3bus.snoop_fanout::0                  45895     75.54%     75.54% # Request fanout histogram
system.tol3bus.snoop_fanout::1                  14858     24.46%    100.00% # Request fanout histogram
system.tol3bus.snoop_fanout::overflows              0      0.00%    100.00% # Request fanout histogram
system.tol3bus.snoop_fanout::min_value              0                       # Request fanout histogram
system.tol3bus.snoop_fanout::max_value              1                       # Request fanout histogram
system.tol3bus.snoop_fanout::total              60753                       # Request fanout histogram
system.tol3bus.reqLayer0.occupancy           44612500                       # Layer occupancy (ticks)
system.tol3bus.reqLayer0.utilization              0.1                       # Layer utilization (%)
system.tol3bus.respLayer0.occupancy          36144000                       # Layer occupancy (ticks)
system.tol3bus.respLayer0.utilization             0.0                       # Layer utilization (%)

---------- End Simulation Statistics   ----------
